test/test_perturbation_outputs/pert_min_loss/pglib_opf_case73_ieee_rts.m
%% MATPOWER Case Format : Version 2
function mpc = pglib_opf_case73_ieee_rts
mpc.version = '2';

%%-----  Power Flow Data  -----%%
%% system MVA base
mpc.baseMVA = 100.0;
%% bus data
%    bus_i    type    Pd    Qd    Gs    Bs    area    Vm    Va    baseKV    zone    Vmax    Vmin
mpc.bus = [
	101	2	108.0	22.0	0.0	0.0	1	1.0	0.0	138.0	1	1.05	0.95				
	102	2	97.0	20.0	0.0	0.0	1	1.0	0.0	138.0	1	1.05	0.95				
	103	1	180.0	37.0	0.0	0.0	1	1.0	0.0	138.0	1	1.05	0.95				
	104	1	74.0	15.0	0.0	0.0	1	1.0	0.0	138.0	1	1.05	0.95				
	105	1	71.0	14.000000000000002	0.0	0.0	1	1.0	0.0	138.0	1	1.05	0.95				
	106	1	136.0	28.000000000000004	0.0	-100.0	1	1.0	0.0	138.0	1	1.05	0.95				
	107	2	125.0	25.0	0.0	0.0	1	1.0	0.0	138.0	1	1.05	0.95				
	108	1	171.0	35.0	0.0	0.0	1	1.0	0.0	138.0	1	1.05	0.95				
	109	1	175.0	36.0	0.0	0.0	1	1.0	0.0	138.0	1	1.05	0.95				
	110	1	195.0	40.0	0.0	0.0	1	1.0	0.0	138.0	1	1.05	0.95				
	111	1	0.0	0.0	0.0	0.0	1	1.0	0.0	230.0	1	1.05	0.95				
	112	1	0.0	0.0	0.0	0.0	1	1.0	0.0	230.0	1	1.05	0.95				
	113	3	265.0	54.0	0.0	0.0	1	1.0	0.0	230.0	1	1.05	0.95				
	114	2	194.0	39.0	0.0	0.0	1	1.0	0.0	230.0	1	1.05	0.95				
	115	2	317.0	64.0	0.0	0.0	1	1.0	0.0	230.0	1	1.05	0.95				
	116	2	100.0	20.0	0.0	0.0	1	1.0	0.0	230.0	1	1.05	0.95				
	117	1	0.0	0.0	0.0	0.0	1	1.0	0.0	230.0	1	1.05	0.95				
	118	2	333.0	68.0	0.0	0.0	1	1.0	0.0	230.0	1	1.05	0.95				
	119	1	181.0	37.0	0.0	0.0	1	1.0	0.0	230.0	1	1.05	0.95				
	120	1	128.0	26.0	0.0	0.0	1	1.0	0.0	230.0	1	1.05	0.95				
	121	2	0.0	0.0	0.0	0.0	1	1.0	0.0	230.0	1	1.05	0.95				
	122	2	0.0	0.0	0.0	0.0	1	1.0	0.0	230.0	1	1.05	0.95				
	123	2	0.0	0.0	0.0	0.0	1	1.0	0.0	230.0	1	1.05	0.95				
	124	1	0.0	0.0	0.0	0.0	1	1.0	0.0	230.0	1	1.05	0.95				
	201	2	108.0	22.0	0.0	0.0	2	1.0	0.0	138.0	2	1.05	0.95				
	202	2	97.0	20.0	0.0	0.0	2	1.0	0.0	138.0	2	1.05	0.95				
	203	1	180.0	37.0	0.0	0.0	2	1.0	0.0	138.0	2	1.05	0.95				
	204	1	74.0	15.0	0.0	0.0	2	1.0	0.0	138.0	2	1.05	0.95				
	205	1	71.0	14.000000000000002	0.0	0.0	2	1.0	0.0	138.0	2	1.05	0.95				
	206	1	136.0	28.000000000000004	0.0	-100.0	2	1.0	0.0	138.0	2	1.05	0.95				
	207	2	125.0	25.0	0.0	0.0	2	1.0	0.0	138.0	2	1.05	0.95				
	208	1	171.0	35.0	0.0	0.0	2	1.0	0.0	138.0	2	1.05	0.95				
	209	1	175.0	36.0	0.0	0.0	2	1.0	0.0	138.0	2	1.05	0.95				
	210	1	195.0	40.0	0.0	0.0	2	1.0	0.0	138.0	2	1.05	0.95				
	211	1	0.0	0.0	0.0	0.0	2	1.0	0.0	230.0	2	1.05	0.95				
	212	1	0.0	0.0	0.0	0.0	2	1.0	0.0	230.0	2	1.05	0.95				
	213	2	265.0	54.0	0.0	0.0	2	1.0	0.0	230.0	2	1.05	0.95				
	214	2	194.0	39.0	0.0	0.0	2	1.0	0.0	230.0	2	1.05	0.95				
	215	2	317.0	64.0	0.0	0.0	2	1.0	0.0	230.0	2	1.05	0.95				
	216	2	100.0	20.0	0.0	0.0	2	1.0	0.0	230.0	2	1.05	0.95				
	217	1	0.0	0.0	0.0	0.0	2	1.0	0.0	230.0	2	1.05	0.95				
	218	2	333.0	68.0	0.0	0.0	2	1.0	0.0	230.0	2	1.05	0.95				
	219	1	181.0	37.0	0.0	0.0	2	1.0	0.0	230.0	2	1.05	0.95				
	220	1	128.0	26.0	0.0	0.0	2	1.0	0.0	230.0	2	1.05	0.95				
	221	2	0.0	0.0	0.0	0.0	2	1.0	0.0	230.0	2	1.05	0.95				
	222	2	0.0	0.0	0.0	0.0	2	1.0	0.0	230.0	2	1.05	0.95				
	223	2	0.0	0.0	0.0	0.0	2	1.0	0.0	230.0	2	1.05	0.95				
	224	1	0.0	0.0	0.0	0.0	2	1.0	0.0	230.0	2	1.05	0.95				
	301	2	108.0	22.0	0.0	0.0	3	1.0	0.0	138.0	3	1.05	0.95				
	302	2	97.0	20.0	0.0	0.0	3	1.0	0.0	138.0	3	1.05	0.95				
	303	1	180.0	37.0	0.0	0.0	3	1.0	0.0	138.0	3	1.05	0.95				
	304	1	74.0	15.0	0.0	0.0	3	1.0	0.0	138.0	3	1.05	0.95				
	305	1	71.0	14.000000000000002	0.0	0.0	3	1.0	0.0	138.0	3	1.05	0.95				
	306	1	136.0	28.000000000000004	0.0	-100.0	3	1.0	0.0	138.0	3	1.05	0.95				
	307	2	125.0	25.0	0.0	0.0	3	1.0	0.0	138.0	3	1.05	0.95				
	308	1	171.0	35.0	0.0	0.0	3	1.0	0.0	138.0	3	1.05	0.95				
	309	1	175.0	36.0	0.0	0.0	3	1.0	0.0	138.0	3	1.05	0.95				
	310	1	195.0	40.0	0.0	0.0	3	1.0	0.0	138.0	3	1.05	0.95				
	311	1	0.0	0.0	0.0	0.0	3	1.0	0.0	230.0	3	1.05	0.95				
	312	1	0.0	0.0	0.0	0.0	3	1.0	0.0	230.0	3	1.05	0.95				
	313	2	265.0	54.0	0.0	0.0	3	1.0	0.0	230.0	3	1.05	0.95				
	314	2	194.0	39.0	0.0	0.0	3	1.0	0.0	230.0	3	1.05	0.95				
	315	2	317.0	64.0	0.0	0.0	3	1.0	0.0	230.0	3	1.05	0.95				
	316	2	100.0	20.0	0.0	0.0	3	1.0	0.0	230.0	3	1.05	0.95				
	317	1	0.0	0.0	0.0	0.0	3	1.0	0.0	230.0	3	1.05	0.95				
	318	2	333.0	68.0	0.0	0.0	3	1.0	0.0	230.0	3	1.05	0.95				
	319	1	181.0	37.0	0.0	0.0	3	1.0	0.0	230.0	3	1.05	0.95				
	320	1	128.0	26.0	0.0	0.0	3	1.0	0.0	230.0	3	1.05	0.95				
	321	2	0.0	0.0	0.0	0.0	3	1.0	0.0	230.0	3	1.05	0.95				
	322	2	0.0	0.0	0.0	0.0	3	1.0	0.0	230.0	3	1.05	0.95				
	323	2	0.0	0.0	0.0	0.0	3	1.0	0.0	230.0	3	1.05	0.95				
	324	1	0.0	0.0	0.0	0.0	3	1.0	0.0	230.0	3	1.05	0.95				
	325	1	0.0	0.0	0.0	0.0	3	1.0	0.0	230.0	3	1.05	0.95				
];

%% generator data
%    bus    Pg    Qg    Qmax    Qmin    Vg    mBase    status    Pmax    Pmin    Pc1    Pc2    Qc1min    Qc1max    Qc2min    Qc2max    ramp_agc    ramp_10    ramp_30    ramp_q    apf
mpc.gen = [
	101	18.0	5.0	10.0	0.0	1.0	100.0	1	20.0	16.0															
	101	18.0	5.0	10.0	0.0	1.0	100.0	1	20.0	16.0															
	101	45.6	2.5	30.0	-25.0	1.0	100.0	1	76.0	15.2															
	101	45.6	2.5	30.0	-25.0	1.0	100.0	1	76.0	15.2															
	102	18.0	5.0	10.0	0.0	1.0	100.0	1	20.0	16.0															
	102	18.0	5.0	10.0	0.0	1.0	100.0	1	20.0	16.0															
	102	45.6	2.5	30.0	-25.0	1.0	100.0	1	76.0	15.2															
	102	45.6	2.5	30.0	-25.0	1.0	100.0	1	76.0	15.2															
	107	62.5	30.0	60.0	0.0	1.0	100.0	1	100.0	25.0															
	107	62.5	30.0	60.0	0.0	1.0	100.0	1	100.0	25.0															
	107	62.5	30.0	60.0	0.0	1.0	100.0	1	100.0	25.0															
	113	133.0	40.0	80.0	0.0	1.0	100.0	1	197.0	69.0															
	113	133.0	40.0	80.0	0.0	1.0	100.0	1	197.0	69.0															
	113	133.0	40.0	80.0	0.0	1.0	100.0	1	197.0	69.0															
	114	0.0	75.0	200.0	-50.0	1.0	100.0	1	0.0	0.0															
	115	7.200000000000001	3.0	6.0	0.0	1.0	100.0	1	12.0	2.4															
	115	7.200000000000001	3.0	6.0	0.0	1.0	100.0	1	12.0	2.4															
	115	7.200000000000001	3.0	6.0	0.0	1.0	100.0	1	12.0	2.4															
	115	7.200000000000001	3.0	6.0	0.0	1.0	100.0	1	12.0	2.4															
	115	7.200000000000001	3.0	6.0	0.0	1.0	100.0	1	12.0	2.4															
	115	104.65	15.0	80.0	-50.0	1.0	100.0	1	155.0	54.29999999999999															
	116	104.65	15.0	80.0	-50.0	1.0	100.0	1	155.0	54.29999999999999															
	118	250.0	75.0	200.0	-50.0	1.0	100.0	1	400.0	100.0															
	121	250.0	75.0	200.0	-50.0	1.0	100.0	1	400.0	100.0															
	122	30.0	3.0	16.0	-10.0	1.0	100.0	1	50.0	10.0															
	122	30.0	3.0	16.0	-10.0	1.0	100.0	1	50.0	10.0															
	122	30.0	3.0	16.0	-10.0	1.0	100.0	1	50.0	10.0															
	122	30.0	3.0	16.0	-10.0	1.0	100.0	1	50.0	10.0															
	122	30.0	3.0	16.0	-10.0	1.0	100.0	1	50.0	10.0															
	122	30.0	3.0	16.0	-10.0	1.0	100.0	1	50.0	10.0															
	123	104.65	15.0	80.0	-50.0	1.0	100.0	1	155.0	54.29999999999999															
	123	104.65	15.0	80.0	-50.0	1.0	100.0	1	155.0	54.29999999999999															
	123	245.00000000000003	62.5	150.0	-25.0	1.0	100.0	1	350.0	140.0															
	201	18.0	5.0	10.0	0.0	1.0	100.0	1	20.0	16.0															
	201	18.0	5.0	10.0	0.0	1.0	100.0	1	20.0	16.0															
	201	45.6	2.5	30.0	-25.0	1.0	100.0	1	76.0	15.2															
	201	45.6	2.5	30.0	-25.0	1.0	100.0	1	76.0	15.2															
	202	18.0	5.0	10.0	0.0	1.0	100.0	1	20.0	16.0															
	202	18.0	5.0	10.0	0.0	1.0	100.0	1	20.0	16.0															
	202	45.6	2.5	30.0	-25.0	1.0	100.0	1	76.0	15.2															
	202	45.6	2.5	30.0	-25.0	1.0	100.0	1	76.0	15.2															
	207	62.5	30.0	60.0	0.0	1.0	100.0	1	100.0	25.0															
	207	62.5	30.0	60.0	0.0	1.0	100.0	1	100.0	25.0															
	207	62.5	30.0	60.0	0.0	1.0	100.0	1	100.0	25.0															
	213	133.0	40.0	80.0	0.0	1.0	100.0	1	197.0	69.0															
	213	133.0	40.0	80.0	0.0	1.0	100.0	1	197.0	69.0															
	213	133.0	40.0	80.0	0.0	1.0	100.0	1	197.0	69.0															
	214	0.0	75.0	200.0	-50.0	1.0	100.0	1	0.0	0.0															
	215	7.200000000000001	3.0	6.0	0.0	1.0	100.0	1	12.0	2.4															
	215	7.200000000000001	3.0	6.0	0.0	1.0	100.0	1	12.0	2.4															
	215	7.200000000000001	3.0	6.0	0.0	1.0	100.0	1	12.0	2.4															
	215	7.200000000000001	3.0	6.0	0.0	1.0	100.0	1	12.0	2.4															
	215	7.200000000000001	3.0	6.0	0.0	1.0	100.0	1	12.0	2.4															
	215	104.65	15.0	80.0	-50.0	1.0	100.0	1	155.0	54.29999999999999															
	216	104.65	15.0	80.0	-50.0	1.0	100.0	1	155.0	54.29999999999999															
	218	250.0	75.0	200.0	-50.0	1.0	100.0	1	400.0	100.0															
	221	250.0	75.0	200.0	-50.0	1.0	100.0	1	400.0	100.0															
	222	30.0	3.0	16.0	-10.0	1.0	100.0	1	50.0	10.0															
	222	30.0	3.0	16.0	-10.0	1.0	100.0	1	50.0	10.0															
	222	30.0	3.0	16.0	-10.0	1.0	100.0	1	50.0	10.0															
	222	30.0	3.0	16.0	-10.0	1.0	100.0	1	50.0	10.0															
	222	30.0	3.0	16.0	-10.0	1.0	100.0	1	50.0	10.0															
	222	30.0	3.0	16.0	-10.0	1.0	100.0	1	50.0	10.0															
	223	104.65	15.0	80.0	-50.0	1.0	100.0	1	155.0	54.29999999999999															
	223	104.65	15.0	80.0	-50.0	1.0	100.0	1	155.0	54.29999999999999															
	223	245.00000000000003	62.5	150.0	-25.0	1.0	100.0	1	350.0	140.0															
	301	18.0	5.0	10.0	0.0	1.0	100.0	1	20.0	16.0															
	301	18.0	5.0	10.0	0.0	1.0	100.0	1	20.0	16.0															
	301	45.6	2.5	30.0	-25.0	1.0	100.0	1	76.0	15.2															
	301	45.6	2.5	30.0	-25.0	1.0	100.0	1	76.0	15.2															
	302	18.0	5.0	10.0	0.0	1.0	100.0	1	20.0	16.0															
	302	18.0	5.0	10.0	0.0	1.0	100.0	1	20.0	16.0															
	302	45.6	2.5	30.0	-25.0	1.0	100.0	1	76.0	15.2															
	302	45.6	2.5	30.0	-25.0	1.0	100.0	1	76.0	15.2															
	307	62.5	30.0	60.0	0.0	1.0	100.0	1	100.0	25.0															
	307	62.5	30.0	60.0	0.0	1.0	100.0	1	100.0	25.0															
	307	62.5	30.0	60.0	0.0	1.0	100.0	1	100.0	25.0															
	313	133.0	40.0	80.0	0.0	1.0	100.0	1	197.0	69.0															
	313	133.0	40.0	80.0	0.0	1.0	100.0	1	197.0	69.0															
	313	133.0	40.0	80.0	0.0	1.0	100.0	1	197.0	69.0															
	314	0.0	75.0	200.0	-50.0	1.0	100.0	1	0.0	0.0															
	315	7.200000000000001	3.0	6.0	0.0	1.0	100.0	1	12.0	2.4															
	315	7.200000000000001	3.0	6.0	0.0	1.0	100.0	1	12.0	2.4															
	315	7.200000000000001	3.0	6.0	0.0	1.0	100.0	1	12.0	2.4															
	315	7.200000000000001	3.0	6.0	0.0	1.0	100.0	1	12.0	2.4															
	315	7.200000000000001	3.0	6.0	0.0	1.0	100.0	1	12.0	2.4															
	315	104.65	15.0	80.0	-50.0	1.0	100.0	1	155.0	54.29999999999999															
	316	104.65	15.0	80.0	-50.0	1.0	100.0	1	155.0	54.29999999999999															
	318	250.0	75.0	200.0	-50.0	1.0	100.0	1	400.0	100.0															
	321	250.0	75.0	200.0	-50.0	1.0	100.0	1	400.0	100.0															
	322	30.0	3.0	16.0	-10.0	1.0	100.0	1	50.0	10.0															
	322	30.0	3.0	16.0	-10.0	1.0	100.0	1	50.0	10.0															
	322	30.0	3.0	16.0	-10.0	1.0	100.0	1	50.0	10.0															
	322	30.0	3.0	16.0	-10.0	1.0	100.0	1	50.0	10.0															
	322	30.0	3.0	16.0	-10.0	1.0	100.0	1	50.0	10.0															
	322	30.0	3.0	16.0	-10.0	1.0	100.0	1	50.0	10.0															
	323	104.65	15.0	80.0	-50.0	1.0	100.0	1	155.0	54.29999999999999															
	323	104.65	15.0	80.0	-50.0	1.0	100.0	1	155.0	54.29999999999999															
	323	245.00000000000003	62.5	150.0	-25.0	1.0	100.0	1	350.0	140.0															
];

%% branch data
%    f_bus    t_bus    r    x    b    rateA    rateB    rateC    ratio    angle    status    angmin    angmax
mpc.branch = [
	101	102	0.003	0.014	0.461	175.0	193.0	200.0	0	0	1	-29.999999999999996	29.999999999999996								
	101	103	0.055	0.211	0.057	175.0	208.0	220.00000000000003	0	0	1	-29.999999999999996	29.999999999999996								
	101	105	0.022	0.085	0.023	175.0	208.0	220.00000000000003	0	0	1	-29.999999999999996	29.999999999999996								
	102	104	0.033	0.127	0.034	175.0	208.0	220.00000000000003	0	0	1	-29.999999999999996	29.999999999999996								
	102	106	0.05	0.192	0.052	175.0	208.0	220.00000000000003	0	0	1	-29.999999999999996	29.999999999999996								
	103	109	0.031	0.119	0.032	175.0	208.0	220.00000000000003	0	0	1	-29.999999999999996	29.999999999999996								
	103	124	0.002	0.084	0.0	400.0	509.99999999999994	600.0	1.015	0.0	1	-29.999999999999996	29.999999999999996								
	104	109	0.027	0.104	0.028	175.0	208.0	220.00000000000003	0	0	1	-29.999999999999996	29.999999999999996								
	105	110	0.023	0.088	0.024	175.0	208.0	220.00000000000003	0	0	1	-29.999999999999996	29.999999999999996								
	106	110	0.014	0.061	2.459	175.0	193.0	200.0	0	0	1	-29.999999999999996	29.999999999999996								
	107	108	0.016	0.061	0.017	175.0	208.0	220.00000000000003	0	0	1	-29.999999999999996	29.999999999999996								
	107	203	0.042	0.161	0.044	175.0	208.0	220.00000000000003	0	0	1	-29.999999999999996	29.999999999999996								
	108	109	0.043	0.165	0.045	175.0	208.0	220.00000000000003	0	0	1	-29.999999999999996	29.999999999999996								
	108	110	0.043	0.165	0.045	175.0	208.0	220.00000000000003	0	0	1	-29.999999999999996	29.999999999999996								
	109	111	0.002	0.084	0.0	400.0	509.99999999999994	600.0	1.03	0.0	1	-29.999999999999996	29.999999999999996								
	109	112	0.002	0.084	0.0	400.0	509.99999999999994	600.0	1.03	0.0	1	-29.999999999999996	29.999999999999996								
	110	111	0.002	0.084	0.0	400.0	509.99999999999994	600.0	1.015	0.0	1	-29.999999999999996	29.999999999999996								
	110	112	0.002	0.084	0.0	400.0	509.99999999999994	600.0	1.015	0.0	1	-29.999999999999996	29.999999999999996								
	111	113	0.006	0.048	0.1	500.0	600.0	625.0	0	0	1	-29.999999999999996	29.999999999999996								
	111	114	0.005	0.042	0.088	500.0	600.0	625.0	0	0	1	-29.999999999999996	29.999999999999996								
	112	113	0.006	0.048	0.1	500.0	600.0	625.0	0	0	1	-29.999999999999996	29.999999999999996								
	112	123	0.012	0.097	0.203	500.0	600.0	625.0	0	0	1	-29.999999999999996	29.999999999999996								
	113	123	0.011	0.087	0.182	500.0	600.0	625.0	0	0	1	-29.999999999999996	29.999999999999996								
	113	215	0.01	0.075	0.158	500.0	600.0	625.0	0	0	1	-29.999999999999996	29.999999999999996								
	114	116	0.005	0.059	0.082	500.0	600.0	625.0	0	0	1	-29.999999999999996	29.999999999999996								
	115	116	0.002	0.017	0.036	500.0	600.0	625.0	0	0	1	-29.999999999999996	29.999999999999996								
	115	121	0.006	0.049	0.103	500.0	600.0	625.0	0	0	1	-29.999999999999996	29.999999999999996								
	115	121	0.006	0.049	0.103	500.0	600.0	625.0	0	0	1	-29.999999999999996	29.999999999999996								
	115	124	0.007	0.052	0.109	500.0	600.0	625.0	0	0	1	-29.999999999999996	29.999999999999996								
	116	117	0.003	0.026	0.055	500.0	600.0	625.0	0	0	1	-29.999999999999996	29.999999999999996								
	116	119	0.003	0.023	0.049	500.0	600.0	625.0	0	0	1	-29.999999999999996	29.999999999999996								
	117	118	0.002	0.014	0.03	500.0	600.0	625.0	0	0	1	-29.999999999999996	29.999999999999996								
	117	122	0.014	0.105	0.221	500.0	600.0	625.0	0	0	1	-29.999999999999996	29.999999999999996								
	118	121	0.003	0.026	0.055	500.0	600.0	625.0	0	0	1	-29.999999999999996	29.999999999999996								
	118	121	0.003	0.026	0.055	500.0	600.0	625.0	0	0	1	-29.999999999999996	29.999999999999996								
	119	120	0.005	0.04	0.083	500.0	600.0	625.0	0	0	1	-29.999999999999996	29.999999999999996								
	119	120	0.005	0.04	0.083	500.0	600.0	625.0	0	0	1	-29.999999999999996	29.999999999999996								
	120	123	0.003	0.022	0.046	500.0	600.0	625.0	0	0	1	-29.999999999999996	29.999999999999996								
	120	123	0.003	0.022	0.046	500.0	600.0	625.0	0	0	1	-29.999999999999996	29.999999999999996								
	121	122	0.009	0.068	0.142	500.0	600.0	625.0	0	0	1	-29.999999999999996	29.999999999999996								
	123	217	0.01	0.074	0.155	500.0	600.0	625.0	0	0	1	-29.999999999999996	29.999999999999996								
	201	202	0.003	0.014	0.461	175.0	193.0	200.0	0	0	1	-29.999999999999996	29.999999999999996								
	201	203	0.055	0.211	0.057	175.0	208.0	220.00000000000003	0	0	1	-29.999999999999996	29.999999999999996								
	201	205	0.022	0.085	0.023	175.0	208.0	220.00000000000003	0	0	1	-29.999999999999996	29.999999999999996								
	202	204	0.033	0.127	0.034	175.0	208.0	220.00000000000003	0	0	1	-29.999999999999996	29.999999999999996								
	202	206	0.05	0.192	0.052	175.0	208.0	220.00000000000003	0	0	1	-29.999999999999996	29.999999999999996								
	203	209	0.031	0.119	0.032	175.0	208.0	220.00000000000003	0	0	1	-29.999999999999996	29.999999999999996								
	203	224	0.002	0.084	0.0	400.0	509.99999999999994	600.0	1.015	0.0	1	-29.999999999999996	29.999999999999996								
	204	209	0.027	0.104	0.028	175.0	208.0	220.00000000000003	0	0	1	-29.999999999999996	29.999999999999996								
	205	210	0.023	0.088	0.024	175.0	208.0	220.00000000000003	0	0	1	-29.999999999999996	29.999999999999996								
	206	210	0.014	0.061	2.459	175.0	193.0	200.0	0	0	1	-29.999999999999996	29.999999999999996								
	207	208	0.016	0.061	0.017	175.0	208.0	220.00000000000003	0	0	1	-29.999999999999996	29.999999999999996								
	208	209	0.043	0.165	0.045	175.0	208.0	220.00000000000003	0	0	1	-29.999999999999996	29.999999999999996								
	208	210	0.043	0.165	0.045	175.0	208.0	220.00000000000003	0	0	1	-29.999999999999996	29.999999999999996								
	209	211	0.002	0.084	0.0	400.0	509.99999999999994	600.0	1.03	0.0	1	-29.999999999999996	29.999999999999996								
	209	212	0.002	0.084	0.0	400.0	509.99999999999994	600.0	1.03	0.0	1	-29.999999999999996	29.999999999999996								
	210	211	0.002	0.084	0.0	400.0	509.99999999999994	600.0	1.015	0.0	1	-29.999999999999996	29.999999999999996								
	210	212	0.002	0.084	0.0	400.0	509.99999999999994	600.0	1.015	0.0	1	-29.999999999999996	29.999999999999996								
	211	213	0.006	0.048	0.1	500.0	600.0	625.0	0	0	1	-29.999999999999996	29.999999999999996								
	211	214	0.005	0.042	0.088	500.0	600.0	625.0	0	0	1	-29.999999999999996	29.999999999999996								
	212	213	0.006	0.048	0.1	500.0	600.0	625.0	0	0	1	-29.999999999999996	29.999999999999996								
	212	223	0.012	0.097	0.203	500.0	600.0	625.0	0	0	1	-29.999999999999996	29.999999999999996								
	213	223	0.011	0.087	0.182	500.0	600.0	625.0	0	0	1	-29.999999999999996	29.999999999999996								
	214	216	0.005	0.059	0.082	500.0	600.0	625.0	0	0	1	-29.999999999999996	29.999999999999996								
	215	216	0.002	0.017	0.036	500.0	600.0	625.0	0	0	1	-29.999999999999996	29.999999999999996								
	215	221	0.006	0.049	0.103	500.0	600.0	625.0	0	0	1	-29.999999999999996	29.999999999999996								
	215	221	0.006	0.049	0.103	500.0	600.0	625.0	0	0	1	-29.999999999999996	29.999999999999996								
	215	224	0.007	0.052	0.109	500.0	600.0	625.0	0	0	1	-29.999999999999996	29.999999999999996								
	216	217	0.003	0.026	0.055	500.0	600.0	625.0	0	0	1	-29.999999999999996	29.999999999999996								
	216	219	0.003	0.023	0.049	500.0	600.0	625.0	0	0	1	-29.999999999999996	29.999999999999996								
	217	218	0.002	0.014	0.03	500.0	600.0	625.0	0	0	1	-29.999999999999996	29.999999999999996								
	217	222	0.014	0.105	0.221	500.0	600.0	625.0	0	0	1	-29.999999999999996	29.999999999999996								
	218	221	0.003	0.026	0.055	500.0	600.0	625.0	0	0	1	-29.999999999999996	29.999999999999996								
	218	221	0.003	0.026	0.055	500.0	600.0	625.0	0	0	1	-29.999999999999996	29.999999999999996								
	219	220	0.005	0.04	0.083	500.0	600.0	625.0	0	0	1	-29.999999999999996	29.999999999999996								
	219	220	0.005	0.04	0.083	500.0	600.0	625.0	0	0	1	-29.999999999999996	29.999999999999996								
	220	223	0.003	0.022	0.046	500.0	600.0	625.0	0	0	1	-29.999999999999996	29.999999999999996								
	220	223	0.003	0.022	0.046	500.0	600.0	625.0	0	0	1	-29.999999999999996	29.999999999999996								
	221	222	0.009	0.068	0.142	500.0	600.0	625.0	0	0	1	-29.999999999999996	29.999999999999996								
	301	302	0.003	0.014	0.461	175.0	193.0	200.0	0	0	1	-29.999999999999996	29.999999999999996								
	301	303	0.055	0.211	0.057	175.0	208.0	220.00000000000003	0	0	1	-29.999999999999996	29.999999999999996								
	301	305	0.022	0.085	0.023	175.0	208.0	220.00000000000003	0	0	1	-29.999999999999996	29.999999999999996								
	302	304	0.033	0.127	0.034	175.0	208.0	220.00000000000003	0	0	1	-29.999999999999996	29.999999999999996								
	302	306	0.05	0.192	0.052	175.0	208.0	220.00000000000003	0	0	1	-29.999999999999996	29.999999999999996								
	303	309	0.031	0.119	0.032	175.0	208.0	220.00000000000003	0	0	1	-29.999999999999996	29.999999999999996								
	303	324	0.002	0.084	0.0	400.0	509.99999999999994	600.0	1.015	0.0	1	-29.999999999999996	29.999999999999996								
	304	309	0.027	0.104	0.028	175.0	208.0	220.00000000000003	0	0	1	-29.999999999999996	29.999999999999996								
	305	310	0.023	0.088	0.024	175.0	208.0	220.00000000000003	0	0	1	-29.999999999999996	29.999999999999996								
	306	310	0.014	0.061	2.459	175.0	193.0	200.0	0	0	1	-29.999999999999996	29.999999999999996								
	307	308	0.016	0.061	0.017	175.0	208.0	220.00000000000003	0	0	1	-29.999999999999996	29.999999999999996								
	308	309	0.043	0.165	0.045	175.0	208.0	220.00000000000003	0	0	1	-29.999999999999996	29.999999999999996								
	308	310	0.043	0.165	0.045	175.0	208.0	220.00000000000003	0	0	1	-29.999999999999996	29.999999999999996								
	309	311	0.002	0.084	0.0	400.0	509.99999999999994	600.0	1.03	0.0	1	-29.999999999999996	29.999999999999996								
	309	312	0.002	0.084	0.0	400.0	509.99999999999994	600.0	1.03	0.0	1	-29.999999999999996	29.999999999999996								
	310	311	0.002	0.084	0.0	400.0	509.99999999999994	600.0	1.015	0.0	1	-29.999999999999996	29.999999999999996								
	310	312	0.002	0.084	0.0	400.0	509.99999999999994	600.0	1.015	0.0	1	-29.999999999999996	29.999999999999996								
	311	313	0.006	0.048	0.1	500.0	600.0	625.0	0	0	1	-29.999999999999996	29.999999999999996								
	311	314	0.005	0.042	0.088	500.0	600.0	625.0	0	0	1	-29.999999999999996	29.999999999999996								
	312	313	0.006	0.048	0.1	500.0	600.0	625.0	0	0	1	-29.999999999999996	29.999999999999996								
	312	323	0.012	0.097	0.203	500.0	600.0	625.0	0	0	1	-29.999999999999996	29.999999999999996								
	313	323	0.011	0.087	0.182	500.0	600.0	625.0	0	0	1	-29.999999999999996	29.999999999999996								
	314	316	0.005	0.059	0.082	500.0	600.0	625.0	0	0	1	-29.999999999999996	29.999999999999996								
	315	316	0.002	0.017	0.036	500.0	600.0	625.0	0	0	1	-29.999999999999996	29.999999999999996								
	315	321	0.006	0.049	0.103	500.0	600.0	625.0	0	0	1	-29.999999999999996	29.999999999999996								
	315	321	0.006	0.049	0.103	500.0	600.0	625.0	0	0	1	-29.999999999999996	29.999999999999996								
	315	324	0.007	0.052	0.109	500.0	600.0	625.0	0	0	1	-29.999999999999996	29.999999999999996								
	316	317	0.003	0.026	0.055	500.0	600.0	625.0	0	0	1	-29.999999999999996	29.999999999999996								
	316	319	0.003	0.023	0.049	500.0	600.0	625.0	0	0	1	-29.999999999999996	29.999999999999996								
	317	318	0.002	0.014	0.03	500.0	600.0	625.0	0	0	1	-29.999999999999996	29.999999999999996								
	317	322	0.014	0.105	0.221	500.0	600.0	625.0	0	0	1	-29.999999999999996	29.999999999999996								
	318	321	0.003	0.026	0.055	500.0	600.0	625.0	0	0	1	-29.999999999999996	29.999999999999996								
	318	321	0.003	0.026	0.055	500.0	600.0	625.0	0	0	1	-29.999999999999996	29.999999999999996								
	319	320	0.005	0.04	0.083	500.0	600.0	625.0	0	0	1	-29.999999999999996	29.999999999999996								
	319	320	0.005	0.04	0.083	500.0	600.0	625.0	0	0	1	-29.999999999999996	29.999999999999996								
	320	323	0.003	0.022	0.046	500.0	600.0	625.0	0	0	1	-29.999999999999996	29.999999999999996								
	320	323	0.003	0.022	0.046	500.0	600.0	625.0	0	0	1	-29.999999999999996	29.999999999999996								
	321	322	0.009	0.068	0.142	500.0	600.0	625.0	0	0	1	-29.999999999999996	29.999999999999996								
	325	121	0.012	0.097	0.203	500.0	600.0	625.0	0	0	1	-29.999999999999996	29.999999999999996								
	318	223	0.013	0.104	0.218	500.0	600.0	625.0	0	0	1	-29.999999999999996	29.999999999999996								
	323	325	0.0	0.009	0.0	722.0	893.0	893.0	0	0	1	-29.999999999999996	29.999999999999996								
];

%%-----  OPF Data  -----%%
%% cost data
%    1    startup    shutdown    n    x1    y1    ...    xn    yn
%    2    startup    shutdown    n    c(n-1)    ...    c0
mpc.gencost = [
	2	1500.0	0.0	3	0.0	130.0	400.6849
	2	1500.0	0.0	3	0.0	130.0	400.6849
	2	1500.0	0.0	3	0.014142	16.0811	212.3076
	2	1500.0	0.0	3	0.014142	16.0811	212.3076
	2	1500.0	0.0	3	0.0	130.0	400.6849
	2	1500.0	0.0	3	0.0	130.0	400.6849
	2	1500.0	0.0	3	0.014142	16.0811	212.3076
	2	1500.0	0.0	3	0.014142	16.0811	212.3076
	2	1500.0	0.0	3	0.052672	43.6615	781.521
	2	1500.0	0.0	3	0.052672	43.6615	781.521
	2	1500.0	0.0	3	0.052672	43.6615	781.521
	2	1500.0	0.0	3	0.007170000000000001	48.5804	832.7575
	2	1500.0	0.0	3	0.007170000000000001	48.5804	832.7575
	2	1500.0	0.0	3	0.007170000000000001	48.5804	832.7575
	2	1500.0	0.0	3	0.0	0.0	0.0
	2	1500.0	0.0	3	0.328412	56.564	86.3852
	2	1500.0	0.0	3	0.328412	56.564	86.3852
	2	1500.0	0.0	3	0.328412	56.564	86.3852
	2	1500.0	0.0	3	0.328412	56.564	86.3852
	2	1500.0	0.0	3	0.328412	56.564	86.3852
	2	1500.0	0.0	3	0.008342	12.3883	382.2391
	2	1500.0	0.0	3	0.008342	12.3883	382.2391
	2	1500.0	0.0	3	0.000213	4.4231	395.3749
	2	1500.0	0.0	3	0.000213	4.4231	395.3749
	2	1500.0	0.0	3	0.0	0.001	0.001
	2	1500.0	0.0	3	0.0	0.001	0.001
	2	1500.0	0.0	3	0.0	0.001	0.001
	2	1500.0	0.0	3	0.0	0.001	0.001
	2	1500.0	0.0	3	0.0	0.001	0.001
	2	1500.0	0.0	3	0.0	0.001	0.001
	2	1500.0	0.0	3	0.008342	12.3883	382.2391
	2	1500.0	0.0	3	0.008342	12.3883	382.2391
	2	1500.0	0.0	3	0.004895000000000001	11.8495	665.1094
	2	1500.0	0.0	3	0.0	130.0	400.6849
	2	1500.0	0.0	3	0.0	130.0	400.6849
	2	1500.0	0.0	3	0.014142	16.0811	212.3076
	2	1500.0	0.0	3	0.014142	16.0811	212.3076
	2	1500.0	0.0	3	0.0	130.0	400.6849
	2	1500.0	0.0	3	0.0	130.0	400.6849
	2	1500.0	0.0	3	0.014142	16.0811	212.3076
	2	1500.0	0.0	3	0.014142	16.0811	212.3076
	2	1500.0	0.0	3	0.052672	43.6615	781.521
	2	1500.0	0.0	3	0.052672	43.6615	781.521
	2	1500.0	0.0	3	0.052672	43.6615	781.521
	2	1500.0	0.0	3	0.007170000000000001	48.5804	832.7575
	2	1500.0	0.0	3	0.007170000000000001	48.5804	832.7575
	2	1500.0	0.0	3	0.007170000000000001	48.5804	832.7575
	2	1500.0	0.0	3	0.0	0.0	0.0
	2	1500.0	0.0	3	0.328412	56.564	86.3852
	2	1500.0	0.0	3	0.328412	56.564	86.3852
	2	1500.0	0.0	3	0.328412	56.564	86.3852
	2	1500.0	0.0	3	0.328412	56.564	86.3852
	2	1500.0	0.0	3	0.328412	56.564	86.3852
	2	1500.0	0.0	3	0.008342	12.3883	382.2391
	2	1500.0	0.0	3	0.008342	12.3883	382.2391
	2	1500.0	0.0	3	0.000213	4.4231	395.3749
	2	1500.0	0.0	3	0.000213	4.4231	395.3749
	2	1500.0	0.0	3	0.0	0.001	0.001
	2	1500.0	0.0	3	0.0	0.001	0.001
	2	1500.0	0.0	3	0.0	0.001	0.001
	2	1500.0	0.0	3	0.0	0.001	0.001
	2	1500.0	0.0	3	0.0	0.001	0.001
	2	1500.0	0.0	3	0.0	0.001	0.001
	2	1500.0	0.0	3	0.008342	12.3883	382.2391
	2	1500.0	0.0	3	0.008342	12.3883	382.2391
	2	1500.0	0.0	3	0.004895000000000001	11.8495	665.1094
	2	1500.0	0.0	3	0.0	130.0	400.6849
	2	1500.0	0.0	3	0.0	130.0	400.6849
	2	1500.0	0.0	3	0.014142	16.0811	212.3076
	2	1500.0	0.0	3	0.014142	16.0811	212.3076
	2	1500.0	0.0	3	0.0	130.0	400.6849
	2	1500.0	0.0	3	0.0	130.0	400.6849
	2	1500.0	0.0	3	0.014142	16.0811	212.3076
	2	1500.0	0.0	3	0.014142	16.0811	212.3076
	2	1500.0	0.0	3	0.052672	43.6615	781.521
	2	1500.0	0.0	3	0.052672	43.6615	781.521
	2	1500.0	0.0	3	0.052672	43.6615	781.521
	2	1500.0	0.0	3	0.007170000000000001	48.5804	832.7575
	2	1500.0	0.0	3	0.007170000000000001	48.5804	832.7575
	2	1500.0	0.0	3	0.007170000000000001	48.5804	832.7575
	2	1500.0	0.0	3	0.0	0.0	0.0
	2	1500.0	0.0	3	0.328412	56.564	86.3852
	2	1500.0	0.0	3	0.328412	56.564	86.3852
	2	1500.0	0.0	3	0.328412	56.564	86.3852
	2	1500.0	0.0	3	0.328412	56.564	86.3852
	2	1500.0	0.0	3	0.328412	56.564	86.3852
	2	1500.0	0.0	3	0.008342	12.3883	382.2391
	2	1500.0	0.0	3	0.008342	12.3883	382.2391
	2	1500.0	0.0	3	0.000213	4.4231	395.3749
	2	1500.0	0.0	3	0.000213	4.4231	395.3749
	2	1500.0	0.0	3	0.0	0.001	0.001
	2	1500.0	0.0	3	0.0	0.001	0.001
	2	1500.0	0.0	3	0.0	0.001	0.001
	2	1500.0	0.0	3	0.0	0.001	0.001
	2	1500.0	0.0	3	0.0	0.001	0.001
	2	1500.0	0.0	3	0.0	0.001	0.001
	2	1500.0	0.0	3	0.008342	12.3883	382.2391
	2	1500.0	0.0	3	0.008342	12.3883	382.2391
	2	1500.0	0.0	3	0.004895000000000001	11.8495	665.1094
];

